/*--------------------------------*- C++ -*----------------------------------*\
| =========                 |                                                 |
| \\      /  F ield         | OpenFOAM: The Open Source CFD Toolbox           |
|  \\    /   O peration     | Version:  1.6-ext                               |
|   \\  /    A nd           | Web:      http://www.OpenFOAM.org               |
|    \\/     M anipulation  |                                                 |
\*---------------------------------------------------------------------------*/
FoamFile
{
    version     2.0;
    format      ascii;
    class       volScalarField;
    location	"0";
    object      p;
}
// * * * * * * * * * * * * * * * * * * * * * * * * * * * * * * * * * * * * * //

dimensions      [0 2 -2 0 0 0 0];

internalField   uniform 0;

boundaryField
{
    tail
    {
	type		zeroGradient;
    }
    topWall      
    {
        type            zeroGradient;
    }

    bottomWall      
    {
        type            zeroGradient;
    }

    outlet
    {
        type            totalPressure;
        p0              uniform 0;
        U               U;
        phi             phi;
        rho             none;
        psi             none;
        gamma           1;
        value           uniform 0;
//HronTurek tutorial case uses type	fixedValue;	value	uniform 0;
    }

    inlet
    {
        type            zeroGradient;
    }

    frontAndBackPlanes
    {
        type            empty;
    }
}

// ************************************************************************* //
