/*--------------------------------*- C++ -*----------------------------------*\
| =========                 |                                                 |
| \\      /  F ield         | OpenFOAM: The Open Source CFD Toolbox           |
|  \\    /   O peration     | Version:  1.5                                   |
|   \\  /    A nd           | Web:      http://www.OpenFOAM.org               |
|    \\/     M anipulation  |                                                 |
\*---------------------------------------------------------------------------*/
FoamFile
{
    version     2.0;
    format      ascii;
    class       volScalarField;
    object      T;
}
// * * * * * * * * * * * * * * * * * * * * * * * * * * * * * * * * * * * * * //

dimensions      [0 0 0 1 0 0 0];

internalField   uniform 300;

boundaryField
{
    fixedWalls      
    {
        type            fixedValue;
	value		uniform 350;
    }

    inlet      
    {
        type            fixedValue;
	value		uniform 300;
    }

    outlet      
    {
        type            fixedValue;
	value		uniform 200;
    }

    frontAndBack    
    {
        type            empty;
    }
}

// ************************************************************************* //
