/*--------------------------------*- C++ -*----------------------------------*\
| =========                 |                                                 |
| \\      /  F ield         | OpenFOAM Extend Project: Open source CFD        |
|  \\    /   O peration     | Version:  1.6-ext                               |
|   \\  /    A nd           | Web:      www.extend-project.de                 |
|    \\/     M anipulation  |                                                 |
\*---------------------------------------------------------------------------*/
FoamFile
{
    version     2.0;
    format      ascii;
    class       polyBoundaryMesh;
    location    "constant/polyMesh";
    object      boundary;
}
// * * * * * * * * * * * * * * * * * * * * * * * * * * * * * * * * * * * * * //

3
(
    tail
    {
        type            patch;
        nFaces          36;
        startFace       108;
    }
    tailFixed
    {
        type            patch;
        nFaces          4;
        startFace       144;
    }
    frontAndBackPlanes
    {
        type            empty;
        nFaces          128;
        startFace       148;
    }
)

// ************************************************************************* //
